  147
   -529.09615151
Pd    0.000000000000    0.000000000000    0.000000000000
Pd   -0.000000000471    1.938355606489    1.938355605321
Pd    1.938355605838    0.000000000471    1.938355607006
Pd   -0.000000000471   -1.938355605838    1.938355607006
Pd   -1.938355606489    0.000000000471    1.938355605321
Pd    0.000000000471    1.938355605838   -1.938355607006
Pd    1.938355606489   -0.000000000471   -1.938355605321
Pd    0.000000000471   -1.938355606489   -1.938355605321
Pd   -1.938355605838   -0.000000000471   -1.938355607006
Pd    1.938355606164    1.938355606164   -0.000000000000
Pd    1.938355606164   -1.938355606164    0.000000001311
Pd   -1.938355606164   -1.938355606164   -0.000000000000
Pd   -1.938355606164    1.938355606164   -0.000000001311
Pd   -0.000000000969    3.874242843437    3.874242841242
Pd    3.874242840345    0.000000000969    3.874242842539
Pd   -0.000000000969   -3.874242840345    3.874242842539
Pd   -3.874242843437    0.000000000969    3.874242841242
Pd    0.000000000969    3.874242840345   -3.874242842539
Pd    3.874242843437   -0.000000000969   -3.874242841242
Pd    0.000000000969   -3.874242843437   -3.874242841242
Pd   -3.874242840345   -0.000000000969   -3.874242842539
Pd    3.874242841891    3.874242841891   -0.000000000000
Pd    3.874242841891   -3.874242841891    0.000000002319
Pd   -3.874242841891   -3.874242841891   -0.000000000000
Pd   -3.874242841891    3.874242841891   -0.000000002319
Pd    1.945117293881    1.945117295792    3.899016719186
Pd    1.945117294217    3.899016719924    1.945117294017
Pd    3.899016718447    1.945117295456    1.945117295656
Pd    1.945117293964   -1.945117293964    3.899016720393
Pd    3.899016718752   -1.945117294472    1.945117296839
Pd    1.945117294472   -3.899016718752    1.945117296839
Pd   -1.945117295792   -1.945117293881    3.899016719186
Pd   -1.945117295456   -3.899016718447    1.945117295656
Pd   -3.899016719924   -1.945117294217    1.945117294017
Pd   -1.945117295708    1.945117295708    3.899016717978
Pd   -1.945117295201    3.899016719620    1.945117292834
Pd   -3.899016719620    1.945117295201    1.945117292834
Pd    1.945117295792    1.945117293881   -3.899016719186
Pd    1.945117295456    3.899016718447   -1.945117295656
Pd    3.899016719924    1.945117294217   -1.945117294017
Pd    1.945117295708   -1.945117295708   -3.899016717978
Pd    3.899016719620   -1.945117295201   -1.945117292834
Pd    1.945117295201   -3.899016719620   -1.945117292834
Pd   -1.945117293881   -1.945117295792   -3.899016719186
Pd   -1.945117294217   -3.899016719924   -1.945117294017
Pd   -3.899016718447   -1.945117295456   -1.945117295656
Pd   -1.945117293964    1.945117293964   -3.899016720393
Pd   -1.945117294472    3.899016718752   -1.945117296839
Pd   -3.899016718752    1.945117294472   -1.945117296839
Pd   -0.000000000869    0.000000000869    3.908826713508
Pd    0.000000000869   -0.000000000869   -3.908826713508
Pd    0.000000000000    3.908826713508   -0.000000001586
Pd   -0.000000000000   -3.908826713508    0.000000001586
Pd   -3.908826713508   -0.000000000000   -0.000000001586
Pd    3.908826713508    0.000000000000    0.000000001586
Au   -0.000000001655    5.781884377649    5.781884375075
Au    5.781884376027    0.000000001655    5.781884378602
Au   -0.000000001655   -5.781884376027    5.781884378602
Au   -5.781884377649    0.000000001655    5.781884375075
Au    0.000000001655    5.781884376027   -5.781884378602
Au    5.781884377649   -0.000000001655   -5.781884375075
Au    0.000000001655   -5.781884377649   -5.781884375075
Au   -5.781884376027   -0.000000001655   -5.781884378602
Au    5.781884376838    5.781884376838    0.000000000000
Au    5.781884376838   -5.781884376838    0.000000002949
Au   -5.781884376838   -5.781884376838    0.000000000000
Au   -5.781884376838    5.781884376838   -0.000000002949
Au    1.936200823908    3.900683065430    5.862029307493
Au    1.936200823952    5.862029309253    3.900683062649
Au    5.862029307028    1.936200827679    3.900683064636
Au    3.900683061855    1.936200827723    5.862029308789
Au    3.900683062425    5.862029309090    1.936200824896
Au    5.862029307191    3.900683064860    1.936200826736
Au    3.900683062126   -1.936200824584    5.862029310039
Au    5.862029307440   -1.936200825426    3.900683065853
Au    1.936200825426   -5.862029307440    3.900683065853
Au    1.936200824584   -3.900683062126    5.862029310039
Au    5.862029307762   -3.900683063431    1.936200828600
Au    3.900683063431   -5.862029307762    1.936200828600
Au   -1.936200827723   -3.900683061855    5.862029308789
Au   -1.936200827679   -5.862029307028    3.900683064636
Au   -5.862029309253   -1.936200823952    3.900683062649
Au   -3.900683065430   -1.936200823908    5.862029307493
Au   -3.900683064860   -5.862029307191    1.936200826736
Au   -5.862029309090   -3.900683062425    1.936200824896
Au   -1.936200827047    3.900683065159    5.862029306242
Au   -1.936200826205    5.862029308841    3.900683061432
Au   -5.862029308841    1.936200826205    3.900683061432
Au   -3.900683065159    1.936200827047    5.862029306242
Au   -3.900683063854    5.862029308520    1.936200823032
Au   -5.862029308520    3.900683063854    1.936200823032
Au    1.936200827723    3.900683061855   -5.862029308789
Au    1.936200827679    5.862029307028   -3.900683064636
Au    5.862029309253    1.936200823952   -3.900683062649
Au    3.900683065430    1.936200823908   -5.862029307493
Au    3.900683064860    5.862029307191   -1.936200826736
Au    5.862029309090    3.900683062425   -1.936200824896
Au    3.900683065159   -1.936200827047   -5.862029306242
Au    5.862029308841   -1.936200826205   -3.900683061432
Au    1.936200826205   -5.862029308841   -3.900683061432
Au    1.936200827047   -3.900683065159   -5.862029306242
Au    5.862029308520   -3.900683063854   -1.936200823032
Au    3.900683063854   -5.862029308520   -1.936200823032
Au   -1.936200823908   -3.900683065430   -5.862029307493
Au   -1.936200823952   -5.862029309253   -3.900683062649
Au   -5.862029307028   -1.936200827679   -3.900683064636
Au   -3.900683061855   -1.936200827723   -5.862029308789
Au   -3.900683062425   -5.862029309090   -1.936200824896
Au   -5.862029307191   -3.900683064860   -1.936200826736
Au   -1.936200824584    3.900683062126   -5.862029310039
Au   -1.936200825426    5.862029307440   -3.900683065853
Au   -5.862029307440    1.936200825426   -3.900683065853
Au   -3.900683062126    1.936200824584   -5.862029310039
Au   -3.900683063431    5.862029307762   -1.936200828600
Au   -5.862029307762    3.900683063431   -1.936200828600
Au   -0.000000001453    1.953267901906    5.911498578966
Au   -1.953267901906    0.000000001453    5.911498578966
Au    1.953267898890    0.000000001453    5.911498580182
Au   -0.000000001453   -1.953267898890    5.911498580182
Au    0.000000001453    1.953267898890   -5.911498580182
Au   -1.953267898890   -0.000000001453   -5.911498580182
Au    1.953267901906   -0.000000001453   -5.911498578966
Au    0.000000001453   -1.953267901906   -5.911498578966
Au    0.000000000452    5.911498579063   -1.953267902585
Au   -1.953267900398    5.911498579574   -0.000000002622
Au    1.953267900398    5.911498579574   -0.000000001969
Au   -0.000000000452    5.911498580085    1.953267898210
Au    0.000000000452   -5.911498580085   -1.953267898210
Au   -1.953267900398   -5.911498579574    0.000000001969
Au    1.953267900398   -5.911498579574    0.000000002622
Au   -0.000000000452   -5.911498579063    1.953267902585
Au   -5.911498579574    1.953267900398   -0.000000002622
Au   -5.911498579063   -0.000000000452   -1.953267902585
Au   -5.911498580085    0.000000000452    1.953267898210
Au   -5.911498579574   -1.953267900398   -0.000000001969
Au    5.911498579574    1.953267900398    0.000000001969
Au    5.911498580085   -0.000000000452   -1.953267898210
Au    5.911498579063    0.000000000452    1.953267902585
Au    5.911498579574   -1.953267900398    0.000000002622
Au    3.934010271722    3.934010275007    3.934010273364
Au    3.934010272640   -3.934010272640    3.934010275811
Au   -3.934010275007   -3.934010271722    3.934010273364
Au   -3.934010274089    3.934010274089    3.934010270918
Au    3.934010275007    3.934010271722   -3.934010273364
Au    3.934010274089   -3.934010274089   -3.934010270918
Au   -3.934010271722   -3.934010275007   -3.934010273364
Au   -3.934010272640    3.934010272640   -3.934010275811
